$DATA1 SOURCE='PrimeSim HSPICE' VERSION='U-2023.03-SP2 linux6' PARAM_COUNT=0
.TITLE '* parameters and models'
 tpdr             tpdf             tpd              trise           
 tfall            temper           alter#          
  5.567e-11        5.580e-11        5.574e-11        7.133e-11      
  6.521e-11         70.0000        1               
