Using: /mnt/vol_synopsys2023/synopsys/hspice/U-2023.03-SP2/hspice/linux64/hspice nombre_del_archivo.sp
  Start time: Sat Nov 30 20:19:18 2024
           job total runtime         0.00 seconds


 lic: total license checkout elapse time:        0.00(s)
