$DATA1 SOURCE='PrimeSim HSPICE' VERSION='U-2023.03-SP2 linux6' PARAM_COUNT=0
.TITLE '* librerías'
 tdc              tcq              tdq              temper          
 alter#          
    0.0              failed           failed          70.0000       
1               
